 48

C      17.944337844849     19.345315933228     22.169439315796
C      20.775175094604     19.344684600830     22.170146942139
H      21.866275787354     19.344449996948     22.154716491699
H      16.853271484375     19.345546722412     22.154008865356
C      20.091897964478     20.575742721558     22.202140808105
C      18.628103256226     20.575704574585     22.201396942139
C      18.627624511719     18.114377975464     22.202718734741
C      20.091415405273     18.113666534424     22.203371047974
C      20.773914337158     21.805309295654     22.203132629395
H      21.865146636963     21.805652618408     22.176908493042
C      17.945501327515     21.804693222046     22.201013565063
C      20.772912979126     16.884231567383     22.205667495728
C      17.944478988647     16.886146545410     22.203948974609
H      21.864139556885     16.883382797241     22.178907394409
H      16.854301452637     21.804342269897     22.172634124756
H      16.853300094604     16.886734008789     22.175382614136
C      20.087377548218     25.491056442261     22.195877075195
C      20.090803146362     23.030580520630     22.204795837402
C      18.627449035645     25.490089416504     22.195421218872
C      18.627748489380     23.030086517334     22.203840255737
C      20.089237213135     15.659033775330     22.208993911743
C      18.626289367676     15.660263061523     22.208206176758
C      20.084642410278     13.198643684387     22.203458786011
C      18.624879837036     13.200427055359     22.202854156494
H      21.864116668701     24.267755508423     22.158603668213
C      20.772994995117     24.266128540039     22.172876358032
H      21.861927032471     14.421274185181     22.163436889648
C      17.943679809570     24.264451980591     22.171808242798
C      20.770818710327     14.423420906067     22.178165435791
H      16.852594375610     24.264228820801     22.156585693359
C      17.941743850708     14.426538467407     22.177251815796
H      16.850656509399     14.427211761475     22.161764144897
C      20.295188903809     24.546152114868     20.735904693604
C      18.755342483521     24.562799453735     20.721902847290
H      20.772569656372     25.581197738647     20.755609512329
H      20.835788726807     23.713764190674     20.175115585327
H      18.349197387695     25.053129196167     19.776269912720
H      18.112810134888     23.741556167603     20.261133193970
H      20.185638427734     12.069717407227     22.081291198730
H      18.669878005981     12.065472602844     22.300086975098
H      20.234634399414     26.620639801025     22.151626586914
H      18.642175674438     26.596397399902     22.470129013062
C      19.984235763550     14.676778793335     20.878665924072
C      18.474582672119     14.705689430237     20.575822830200
H      18.851762771606     15.547203063965     19.905607223511
H      18.631275177002     13.861225128174     19.826204299927
H      20.273912429810     15.517528533936     20.165346145630
H      20.314983367920     13.914881706238     20.097820281982
